Circuit: * D:\00 - Dev & Calculs\PCB\SPI2WS2812\Article source\SimuLTSpice.asc

Direct Newton iteration for .op point succeeded.

Date: Fri Nov 04 17:55:47 2022
Total elapsed time: 0.243 seconds.

tnom = 27
temp = 27
method = modified trap
totiter = 36022
traniter = 36002
tranpoints = 11788
accept = 11355
rejected = 433
matrix size = 27
fillins = 5
solver = Normal
Matrix Compiler1: 1.75 KB object code size  0.3/0.2/[0.1]
Matrix Compiler2: 2.17 KB object code size  0.2/0.2/[0.2]

