Circuit: * D:\00 - Dev & Calculs\PCB\SPI2WS2812\Article source\SimuLTSpice.asc

Direct Newton iteration for .op point succeeded.

Date: Sun Oct 30 19:38:08 2022
Total elapsed time: 0.484 seconds.

tnom = 27
temp = 27
method = modified trap
totiter = 120099
traniter = 120079
tranpoints = 35958
accept = 27465
rejected = 8493
matrix size = 27
fillins = 4
solver = Normal
Matrix Compiler1: 1.71 KB object code size  0.3/0.1/[0.1]
Matrix Compiler2: off  [0.1]/0.2/0.2

