Circuit: * D:\00 - Dev & Calculs\PCB\SPI2WS2812\Article source\SimuLTSpice.asc

Direct Newton iteration for .op point succeeded.

Date: Tue Mar 21 20:09:32 2023
Total elapsed time: 0.570 seconds.

tnom = 27
temp = 27
method = modified trap
totiter = 24157
traniter = 24137
tranpoints = 11788
accept = 11359
rejected = 429
matrix size = 27
fillins = 5
solver = Normal
Avg thread counts: 1.1/1.1/1.1/1.1
Matrix Compiler1: 1.75 KB object code size  0.5/0.3/[0.2]
Matrix Compiler2: 2.17 KB object code size  0.3/0.3/[0.2]

